<?xml version="1.0" encoding="UTF-8"?>

<!-- generated on 05/10/19 21:09:37 by Eclipse SUMO netconvert Version 1.1.0
<configuration xmlns:xsi="http://www.w3.org/2001/XMLSchema-instance" xsi:noNamespaceSchemaLocation="http://sumo.dlr.de/xsd/netconvertConfiguration.xsd">

    <input>
        <node-files value="0.nod.xml"/>
        <edge-files value="0.edg.xml"/>
    </input>

    <output>
        <output-file value="00.net.xml"/>
    </output>

    <junctions>
        <no-turnarounds value="true"/>
    </junctions>

    <report>
        <verbose value="true"/>
    </report>

</configuration>
-->

<net version="1.1" junctionCornerDetail="5" limitTurnSpeed="5.50" xmlns:xsi="http://www.w3.org/2001/XMLSchema-instance" xsi:noNamespaceSchemaLocation="http://sumo.dlr.de/xsd/net_file.xsd">

    <location netOffset="100.00,100.00" convBoundary="0.00,0.00,200.00,200.00" origBoundary="-100.00,-100.00,100.00,100.00" projParameter="!"/>

    <edge id=":5_0" function="internal">
        <lane id=":5_0_0" index="0" speed="7.44" length="10.95" width="4.00" shape="98.00,108.42 97.59,105.49 96.36,103.30 94.30,101.85 91.42,101.15"/>
    </edge>
    <edge id=":5_1" function="internal">
        <lane id=":5_1_0" index="0" speed="20.12" length="16.84" width="4.00" shape="98.00,108.42 98.00,91.58"/>
    </edge>
    <edge id=":5_2" function="internal">
        <lane id=":5_2_0" index="0" speed="8.40" length="16.66" width="4.00" shape="98.00,108.42 98.66,103.84 100.64,100.71 103.95,99.05 108.58,98.85"/>
    </edge>
    <edge id=":5_3" function="internal">
        <lane id=":5_3_0" index="0" speed="6.60" length="9.73" width="4.00" shape="108.18,102.83 105.48,102.95 103.54,103.92 102.39,105.74 102.00,108.42"/>
    </edge>
    <edge id=":5_4" function="internal">
        <lane id=":5_4_0" index="0" speed="20.12" length="16.84" width="4.00" shape="108.18,102.83 91.42,101.15"/>
    </edge>
    <edge id=":5_5" function="internal">
        <lane id=":5_5_0" index="0" speed="9.09" length="7.16" width="4.00" shape="108.18,102.83 103.73,101.74 101.62,100.26"/>
    </edge>
    <edge id=":5_12" function="internal">
        <lane id=":5_12_0" index="0" speed="9.09" length="9.79" width="4.00" shape="101.62,100.26 100.54,99.51 98.64,96.12 98.00,91.58"/>
    </edge>
    <edge id=":5_6" function="internal">
        <lane id=":5_6_0" index="0" speed="7.44" length="10.95" width="4.00" shape="102.00,91.58 102.41,94.51 103.64,96.70 105.70,98.15 108.58,98.85"/>
    </edge>
    <edge id=":5_7" function="internal">
        <lane id=":5_7_0" index="0" speed="20.12" length="16.84" width="4.00" shape="102.00,91.58 102.00,108.42"/>
    </edge>
    <edge id=":5_8" function="internal">
        <lane id=":5_8_0" index="0" speed="8.40" length="16.66" width="4.00" shape="102.00,91.58 101.34,96.16 99.36,99.29 96.05,100.95 91.42,101.15"/>
    </edge>
    <edge id=":5_9" function="internal">
        <lane id=":5_9_0" index="0" speed="6.60" length="9.73" width="4.00" shape="91.82,97.17 94.52,97.05 96.46,96.08 97.61,94.26 98.00,91.58"/>
    </edge>
    <edge id=":5_10" function="internal">
        <lane id=":5_10_0" index="0" speed="20.12" length="16.84" width="4.00" shape="91.82,97.17 108.58,98.85"/>
    </edge>
    <edge id=":5_11" function="internal">
        <lane id=":5_11_0" index="0" speed="9.09" length="7.16" width="4.00" shape="91.82,97.17 96.27,98.26 98.38,99.74"/>
    </edge>
    <edge id=":5_13" function="internal">
        <lane id=":5_13_0" index="0" speed="9.09" length="9.79" width="4.00" shape="98.38,99.74 99.46,100.49 101.36,103.88 102.00,108.42"/>
    </edge>

    <edge id="1to5" from="1" to="5" priority="2">
        <lane id="1to5_0" index="0" speed="20.12" length="91.58" width="4.00" shape="102.00,0.00 102.00,91.58"/>
    </edge>
    <edge id="2to5" from="2" to="5" priority="3">
        <lane id="2to5_0" index="0" speed="20.12" length="92.08" width="4.00" shape="199.80,111.99 108.18,102.83"/>
    </edge>
    <edge id="3to5" from="3" to="5" priority="2">
        <lane id="3to5_0" index="0" speed="20.12" length="91.58" width="4.00" shape="98.00,200.00 98.00,108.42"/>
    </edge>
    <edge id="4to5" from="4" to="5" priority="3">
        <lane id="4to5_0" index="0" speed="20.12" length="92.08" width="4.00" shape="0.20,88.01 91.82,97.17"/>
    </edge>
    <edge id="5to1" from="5" to="1" priority="2">
        <lane id="5to1_0" index="0" speed="20.12" length="91.58" width="4.00" shape="98.00,91.58 98.00,0.00"/>
    </edge>
    <edge id="5to2" from="5" to="2" priority="3">
        <lane id="5to2_0" index="0" speed="20.12" length="92.08" width="4.00" shape="108.58,98.85 200.20,108.01"/>
    </edge>
    <edge id="5to3" from="5" to="3" priority="2">
        <lane id="5to3_0" index="0" speed="20.12" length="91.58" width="4.00" shape="102.00,108.42 102.00,200.00"/>
    </edge>
    <edge id="5to4" from="5" to="4" priority="3">
        <lane id="5to4_0" index="0" speed="20.12" length="92.08" width="4.00" shape="91.42,101.15 -0.20,91.99"/>
    </edge>

    <junction id="1" type="dead_end" x="100.00" y="0.00" incLanes="5to1_0" intLanes="" shape="100.00,0.00 96.00,0.00 100.00,0.00"/>
    <junction id="2" type="dead_end" x="200.00" y="110.00" incLanes="5to2_0" intLanes="" shape="200.00,110.00 200.40,106.02 200.00,110.00"/>
    <junction id="3" type="dead_end" x="100.00" y="200.00" incLanes="5to3_0" intLanes="" shape="100.00,200.00 104.00,200.00 100.00,200.00"/>
    <junction id="4" type="dead_end" x="0.00" y="90.00" incLanes="5to4_0" intLanes="" shape="-0.00,90.00 -0.40,93.98 -0.00,90.00"/>
    <junction id="5" type="priority" x="100.00" y="100.00" incLanes="3to5_0 2to5_0 1to5_0 4to5_0" intLanes=":5_0_0 :5_1_0 :5_2_0 :5_3_0 :5_4_0 :5_12_0 :5_6_0 :5_7_0 :5_8_0 :5_9_0 :5_10_0 :5_13_0" shape="96.00,108.42 104.00,108.42 104.44,106.24 105.00,105.52 105.77,105.04 106.76,104.81 107.98,104.82 108.78,96.86 106.12,96.06 105.19,95.30 104.53,94.30 104.13,93.06 104.00,91.58 96.00,91.58 95.56,93.76 95.00,94.48 94.23,94.96 93.24,95.19 92.02,95.18 91.22,103.14 93.88,103.94 94.81,104.70 95.47,105.70 95.87,106.94">
        <request index="0"  response="000000010000" foes="000100010000" cont="0"/>
        <request index="1"  response="111000110000" foes="111100110000" cont="0"/>
        <request index="2"  response="110011110000" foes="110111110000" cont="0"/>
        <request index="3"  response="000000000000" foes="100010000000" cont="0"/>
        <request index="4"  response="000000000000" foes="100110000111" cont="0"/>
        <request index="5"  response="111000000000" foes="111110000110" cont="1"/>
        <request index="6"  response="010000000000" foes="010000000100" cont="0"/>
        <request index="7"  response="110000111000" foes="110000111100" cont="0"/>
        <request index="8"  response="110000110111" foes="110000110111" cont="0"/>
        <request index="9"  response="000000000000" foes="000000100010" cont="0"/>
        <request index="10" response="000000000000" foes="000111100110" cont="0"/>
        <request index="11" response="000000011000" foes="000110111110" cont="1"/>
    </junction>

    <junction id=":5_12_0" type="internal" x="101.62" y="100.26" incLanes=":5_5_0 4to5_0 :5_11_0" intLanes=":5_13_0 :5_1_0 :5_2_0 :5_7_0 :5_8_0 :5_9_0 :5_10_0 :5_11_0"/>
    <junction id=":5_13_0" type="internal" x="98.38" y="99.74" incLanes=":5_11_0 2to5_0" intLanes=":5_1_0 :5_2_0 :5_3_0 :5_4_0 :5_5_0 :5_7_0 :5_8_0"/>

    <connection from="1to5" to="5to2" fromLane="0" toLane="0" via=":5_6_0" dir="r" state="m"/>
    <connection from="1to5" to="5to3" fromLane="0" toLane="0" via=":5_7_0" dir="s" state="m"/>
    <connection from="1to5" to="5to4" fromLane="0" toLane="0" via=":5_8_0" dir="l" state="m"/>
    <connection from="2to5" to="5to3" fromLane="0" toLane="0" via=":5_3_0" dir="r" state="M"/>
    <connection from="2to5" to="5to4" fromLane="0" toLane="0" via=":5_4_0" dir="s" state="M"/>
    <connection from="2to5" to="5to1" fromLane="0" toLane="0" via=":5_5_0" dir="l" state="m"/>
    <connection from="3to5" to="5to4" fromLane="0" toLane="0" via=":5_0_0" dir="r" state="m"/>
    <connection from="3to5" to="5to1" fromLane="0" toLane="0" via=":5_1_0" dir="s" state="m"/>
    <connection from="3to5" to="5to2" fromLane="0" toLane="0" via=":5_2_0" dir="l" state="m"/>
    <connection from="4to5" to="5to1" fromLane="0" toLane="0" via=":5_9_0" dir="r" state="M"/>
    <connection from="4to5" to="5to2" fromLane="0" toLane="0" via=":5_10_0" dir="s" state="M"/>
    <connection from="4to5" to="5to3" fromLane="0" toLane="0" via=":5_11_0" dir="l" state="m"/>

    <connection from=":5_0" to="5to4" fromLane="0" toLane="0" dir="r" state="M"/>
    <connection from=":5_1" to="5to1" fromLane="0" toLane="0" dir="s" state="M"/>
    <connection from=":5_2" to="5to2" fromLane="0" toLane="0" dir="l" state="M"/>
    <connection from=":5_3" to="5to3" fromLane="0" toLane="0" dir="r" state="M"/>
    <connection from=":5_4" to="5to4" fromLane="0" toLane="0" dir="s" state="M"/>
    <connection from=":5_5" to="5to1" fromLane="0" toLane="0" via=":5_12_0" dir="l" state="m"/>
    <connection from=":5_12" to="5to1" fromLane="0" toLane="0" dir="l" state="M"/>
    <connection from=":5_6" to="5to2" fromLane="0" toLane="0" dir="r" state="M"/>
    <connection from=":5_7" to="5to3" fromLane="0" toLane="0" dir="s" state="M"/>
    <connection from=":5_8" to="5to4" fromLane="0" toLane="0" dir="l" state="M"/>
    <connection from=":5_9" to="5to1" fromLane="0" toLane="0" dir="r" state="M"/>
    <connection from=":5_10" to="5to2" fromLane="0" toLane="0" dir="s" state="M"/>
    <connection from=":5_11" to="5to3" fromLane="0" toLane="0" via=":5_13_0" dir="l" state="m"/>
    <connection from=":5_13" to="5to3" fromLane="0" toLane="0" dir="l" state="M"/>

</net>
