<?xml version="1.0" encoding="UTF-8"?>

<!-- generated on 05/10/19 21:09:38 by Eclipse SUMO netconvert Version 1.1.0
<configuration xmlns:xsi="http://www.w3.org/2001/XMLSchema-instance" xsi:noNamespaceSchemaLocation="http://sumo.dlr.de/xsd/netconvertConfiguration.xsd">

    <input>
        <node-files value="1.nod.xml"/>
        <edge-files value="0.edg.xml"/>
    </input>

    <output>
        <output-file value="10.net.xml"/>
    </output>

    <junctions>
        <no-turnarounds value="true"/>
    </junctions>

    <report>
        <verbose value="true"/>
    </report>

</configuration>
-->

<net version="1.1" junctionCornerDetail="5" limitTurnSpeed="5.50" xmlns:xsi="http://www.w3.org/2001/XMLSchema-instance" xsi:noNamespaceSchemaLocation="http://sumo.dlr.de/xsd/net_file.xsd">

    <location netOffset="100.00,100.00" convBoundary="0.00,0.00,200.00,200.00" origBoundary="-100.00,-100.00,100.00,100.00" projParameter="!"/>

    <edge id=":5_0" function="internal">
        <lane id=":5_0_0" index="0" speed="6.79" length="9.68" width="4.00" shape="98.00,108.00 97.63,105.38 96.50,103.50 94.63,102.38 92.00,102.00"/>
    </edge>
    <edge id=":5_1" function="internal">
        <lane id=":5_1_0" index="0" speed="20.12" length="16.00" width="4.00" shape="98.00,108.00 98.00,92.00"/>
    </edge>
    <edge id=":5_2" function="internal">
        <lane id=":5_2_0" index="0" speed="8.56" length="16.13" width="4.00" shape="98.00,108.00 98.63,103.63 100.50,100.50 103.63,98.63 108.00,98.00"/>
    </edge>
    <edge id=":5_3" function="internal">
        <lane id=":5_3_0" index="0" speed="6.79" length="9.68" width="4.00" shape="108.00,102.00 105.38,102.38 103.50,103.50 102.38,105.38 102.00,108.00"/>
    </edge>
    <edge id=":5_4" function="internal">
        <lane id=":5_4_0" index="0" speed="20.12" length="16.00" width="4.00" shape="108.00,102.00 92.00,102.00"/>
    </edge>
    <edge id=":5_5" function="internal">
        <lane id=":5_5_0" index="0" speed="8.56" length="6.73" width="4.00" shape="108.00,102.00 103.63,101.38 101.64,100.19"/>
    </edge>
    <edge id=":5_12" function="internal">
        <lane id=":5_12_0" index="0" speed="8.56" length="9.40" width="4.00" shape="101.64,100.19 100.50,99.50 98.63,96.38 98.00,92.00"/>
    </edge>
    <edge id=":5_6" function="internal">
        <lane id=":5_6_0" index="0" speed="6.79" length="9.68" width="4.00" shape="102.00,92.00 102.38,94.63 103.50,96.50 105.38,97.63 108.00,98.00"/>
    </edge>
    <edge id=":5_7" function="internal">
        <lane id=":5_7_0" index="0" speed="20.12" length="16.00" width="4.00" shape="102.00,92.00 102.00,108.00"/>
    </edge>
    <edge id=":5_8" function="internal">
        <lane id=":5_8_0" index="0" speed="8.56" length="16.13" width="4.00" shape="102.00,92.00 101.38,96.38 99.50,99.50 96.38,101.38 92.00,102.00"/>
    </edge>
    <edge id=":5_9" function="internal">
        <lane id=":5_9_0" index="0" speed="6.79" length="9.68" width="4.00" shape="92.00,98.00 94.63,97.63 96.50,96.50 97.63,94.63 98.00,92.00"/>
    </edge>
    <edge id=":5_10" function="internal">
        <lane id=":5_10_0" index="0" speed="20.12" length="16.00" width="4.00" shape="92.00,98.00 108.00,98.00"/>
    </edge>
    <edge id=":5_11" function="internal">
        <lane id=":5_11_0" index="0" speed="8.56" length="6.73" width="4.00" shape="92.00,98.00 96.38,98.63 98.36,99.81"/>
    </edge>
    <edge id=":5_13" function="internal">
        <lane id=":5_13_0" index="0" speed="8.56" length="9.40" width="4.00" shape="98.36,99.81 99.50,100.50 101.38,103.63 102.00,108.00"/>
    </edge>

    <edge id="1to5" from="1" to="5" priority="2">
        <lane id="1to5_0" index="0" speed="20.12" length="92.00" width="4.00" shape="102.00,0.00 102.00,92.00"/>
    </edge>
    <edge id="2to5" from="2" to="5" priority="3">
        <lane id="2to5_0" index="0" speed="20.12" length="92.00" width="4.00" shape="200.00,102.00 108.00,102.00"/>
    </edge>
    <edge id="3to5" from="3" to="5" priority="2">
        <lane id="3to5_0" index="0" speed="20.12" length="92.00" width="4.00" shape="98.00,200.00 98.00,108.00"/>
    </edge>
    <edge id="4to5" from="4" to="5" priority="3">
        <lane id="4to5_0" index="0" speed="20.12" length="92.00" width="4.00" shape="0.00,98.00 92.00,98.00"/>
    </edge>
    <edge id="5to1" from="5" to="1" priority="2">
        <lane id="5to1_0" index="0" speed="20.12" length="92.00" width="4.00" shape="98.00,92.00 98.00,0.00"/>
    </edge>
    <edge id="5to2" from="5" to="2" priority="3">
        <lane id="5to2_0" index="0" speed="20.12" length="92.00" width="4.00" shape="108.00,98.00 200.00,98.00"/>
    </edge>
    <edge id="5to3" from="5" to="3" priority="2">
        <lane id="5to3_0" index="0" speed="20.12" length="92.00" width="4.00" shape="102.00,108.00 102.00,200.00"/>
    </edge>
    <edge id="5to4" from="5" to="4" priority="3">
        <lane id="5to4_0" index="0" speed="20.12" length="92.00" width="4.00" shape="92.00,102.00 0.00,102.00"/>
    </edge>

    <junction id="1" type="dead_end" x="100.00" y="0.00" incLanes="5to1_0" intLanes="" shape="100.00,0.00 96.00,0.00 100.00,0.00"/>
    <junction id="2" type="dead_end" x="200.00" y="100.00" incLanes="5to2_0" intLanes="" shape="200.00,100.00 200.00,96.00 200.00,100.00"/>
    <junction id="3" type="dead_end" x="100.00" y="200.00" incLanes="5to3_0" intLanes="" shape="100.00,200.00 104.00,200.00 100.00,200.00"/>
    <junction id="4" type="dead_end" x="0.00" y="100.00" incLanes="5to4_0" intLanes="" shape="0.00,100.00 0.00,104.00 0.00,100.00"/>
    <junction id="5" type="priority" x="100.00" y="100.00" incLanes="3to5_0 2to5_0 1to5_0 4to5_0" intLanes=":5_0_0 :5_1_0 :5_2_0 :5_3_0 :5_4_0 :5_12_0 :5_6_0 :5_7_0 :5_8_0 :5_9_0 :5_10_0 :5_13_0" shape="96.00,108.00 104.00,108.00 104.44,105.78 105.00,105.00 105.78,104.44 106.78,104.11 108.00,104.00 108.00,96.00 105.78,95.56 105.00,95.00 104.44,94.22 104.11,93.22 104.00,92.00 96.00,92.00 95.56,94.22 95.00,95.00 94.22,95.56 93.22,95.89 92.00,96.00 92.00,104.00 94.22,104.44 95.00,105.00 95.56,105.78 95.89,106.78">
        <request index="0"  response="000000010000" foes="000100010000" cont="0"/>
        <request index="1"  response="111000110000" foes="111100110000" cont="0"/>
        <request index="2"  response="110011110000" foes="110111110000" cont="0"/>
        <request index="3"  response="000000000000" foes="100010000000" cont="0"/>
        <request index="4"  response="000000000000" foes="100110000111" cont="0"/>
        <request index="5"  response="111000000000" foes="111110000110" cont="1"/>
        <request index="6"  response="010000000000" foes="010000000100" cont="0"/>
        <request index="7"  response="110000111000" foes="110000111100" cont="0"/>
        <request index="8"  response="110000110111" foes="110000110111" cont="0"/>
        <request index="9"  response="000000000000" foes="000000100010" cont="0"/>
        <request index="10" response="000000000000" foes="000111100110" cont="0"/>
        <request index="11" response="000000011000" foes="000110111110" cont="1"/>
    </junction>

    <junction id=":5_12_0" type="internal" x="101.64" y="100.19" incLanes=":5_5_0 4to5_0 :5_11_0" intLanes=":5_13_0 :5_1_0 :5_2_0 :5_7_0 :5_8_0 :5_9_0 :5_10_0 :5_11_0"/>
    <junction id=":5_13_0" type="internal" x="98.36" y="99.81" incLanes=":5_11_0 2to5_0" intLanes=":5_1_0 :5_2_0 :5_3_0 :5_4_0 :5_5_0 :5_7_0 :5_8_0"/>

    <connection from="1to5" to="5to2" fromLane="0" toLane="0" via=":5_6_0" dir="r" state="m"/>
    <connection from="1to5" to="5to3" fromLane="0" toLane="0" via=":5_7_0" dir="s" state="m"/>
    <connection from="1to5" to="5to4" fromLane="0" toLane="0" via=":5_8_0" dir="l" state="m"/>
    <connection from="2to5" to="5to3" fromLane="0" toLane="0" via=":5_3_0" dir="r" state="M"/>
    <connection from="2to5" to="5to4" fromLane="0" toLane="0" via=":5_4_0" dir="s" state="M"/>
    <connection from="2to5" to="5to1" fromLane="0" toLane="0" via=":5_5_0" dir="l" state="m"/>
    <connection from="3to5" to="5to4" fromLane="0" toLane="0" via=":5_0_0" dir="r" state="m"/>
    <connection from="3to5" to="5to1" fromLane="0" toLane="0" via=":5_1_0" dir="s" state="m"/>
    <connection from="3to5" to="5to2" fromLane="0" toLane="0" via=":5_2_0" dir="l" state="m"/>
    <connection from="4to5" to="5to1" fromLane="0" toLane="0" via=":5_9_0" dir="r" state="M"/>
    <connection from="4to5" to="5to2" fromLane="0" toLane="0" via=":5_10_0" dir="s" state="M"/>
    <connection from="4to5" to="5to3" fromLane="0" toLane="0" via=":5_11_0" dir="l" state="m"/>

    <connection from=":5_0" to="5to4" fromLane="0" toLane="0" dir="r" state="M"/>
    <connection from=":5_1" to="5to1" fromLane="0" toLane="0" dir="s" state="M"/>
    <connection from=":5_2" to="5to2" fromLane="0" toLane="0" dir="l" state="M"/>
    <connection from=":5_3" to="5to3" fromLane="0" toLane="0" dir="r" state="M"/>
    <connection from=":5_4" to="5to4" fromLane="0" toLane="0" dir="s" state="M"/>
    <connection from=":5_5" to="5to1" fromLane="0" toLane="0" via=":5_12_0" dir="l" state="m"/>
    <connection from=":5_12" to="5to1" fromLane="0" toLane="0" dir="l" state="M"/>
    <connection from=":5_6" to="5to2" fromLane="0" toLane="0" dir="r" state="M"/>
    <connection from=":5_7" to="5to3" fromLane="0" toLane="0" dir="s" state="M"/>
    <connection from=":5_8" to="5to4" fromLane="0" toLane="0" dir="l" state="M"/>
    <connection from=":5_9" to="5to1" fromLane="0" toLane="0" dir="r" state="M"/>
    <connection from=":5_10" to="5to2" fromLane="0" toLane="0" dir="s" state="M"/>
    <connection from=":5_11" to="5to3" fromLane="0" toLane="0" via=":5_13_0" dir="l" state="m"/>
    <connection from=":5_13" to="5to3" fromLane="0" toLane="0" dir="l" state="M"/>

</net>
