<?xml version="1.0" encoding="UTF-8"?>

<!-- generated on 05/10/19 21:09:41 by Eclipse SUMO netconvert Version 1.1.0
<configuration xmlns:xsi="http://www.w3.org/2001/XMLSchema-instance" xsi:noNamespaceSchemaLocation="http://sumo.dlr.de/xsd/netconvertConfiguration.xsd">

    <input>
        <node-files value="2.nod.xml"/>
        <edge-files value="2.edg.xml"/>
    </input>

    <output>
        <output-file value="22.net.xml"/>
    </output>

    <junctions>
        <no-turnarounds value="true"/>
    </junctions>

    <report>
        <verbose value="true"/>
    </report>

</configuration>
-->

<net version="1.1" junctionCornerDetail="5" limitTurnSpeed="5.50" xmlns:xsi="http://www.w3.org/2001/XMLSchema-instance" xsi:noNamespaceSchemaLocation="http://sumo.dlr.de/xsd/net_file.xsd">

    <location netOffset="100.00,100.00" convBoundary="0.00,0.00,200.00,200.00" origBoundary="-100.00,-100.00,100.00,100.00" projParameter="!"/>

    <edge id=":5_0" function="internal">
        <lane id=":5_0_0" index="0" speed="6.60" length="9.73" width="4.00" shape="98.00,116.46 97.61,113.78 96.46,111.96 94.52,110.99 91.82,110.87"/>
    </edge>
    <edge id=":5_1" function="internal">
        <lane id=":5_1_0" index="0" speed="20.12" length="32.92" width="4.00" shape="98.00,116.46 98.00,83.54"/>
    </edge>
    <edge id=":5_2" function="internal">
        <lane id=":5_2_0" index="0" speed="10.82" length="24.52" width="4.00" shape="98.00,116.46 98.69,108.40 100.74,102.48 104.17,98.71 108.98,97.09"/>
    </edge>
    <edge id=":5_3" function="internal">
        <lane id=":5_3_0" index="0" speed="7.84" length="12.30" width="4.00" shape="110.17,109.03 106.60,109.80 104.04,111.30 102.51,113.52 102.00,116.46"/>
    </edge>
    <edge id=":5_4" function="internal">
        <lane id=":5_4_0" index="0" speed="20.12" length="18.44" width="4.00" shape="110.17,109.03 91.82,110.87"/>
        <lane id=":5_4_1" index="1" speed="20.12" length="18.44" width="4.00" shape="109.77,105.05 91.42,106.89"/>
        <lane id=":5_4_2" index="2" speed="20.12" length="18.44" width="4.00" shape="109.37,101.07 91.02,102.91"/>
    </edge>
    <edge id=":5_7" function="internal">
        <lane id=":5_7_0" index="0" speed="9.94" length="6.16" width="4.00" shape="109.37,101.07 104.40,100.40 103.54,99.65"/>
    </edge>
    <edge id=":5_16" function="internal">
        <lane id=":5_16_0" index="0" speed="9.94" length="17.74" width="4.00" shape="103.54,99.65 100.84,97.26 98.71,91.64 98.00,83.54"/>
    </edge>
    <edge id=":5_8" function="internal">
        <lane id=":5_8_0" index="0" speed="6.60" length="9.73" width="4.00" shape="102.00,83.54 102.39,86.22 103.54,88.04 105.48,89.01 108.18,89.13"/>
    </edge>
    <edge id=":5_9" function="internal">
        <lane id=":5_9_0" index="0" speed="20.12" length="32.92" width="4.00" shape="102.00,83.54 102.00,116.46"/>
    </edge>
    <edge id=":5_10" function="internal">
        <lane id=":5_10_0" index="0" speed="10.82" length="24.52" width="4.00" shape="102.00,83.54 101.31,91.60 99.26,97.52 95.83,101.29 91.02,102.91"/>
    </edge>
    <edge id=":5_11" function="internal">
        <lane id=":5_11_0" index="0" speed="7.84" length="12.30" width="4.00" shape="89.83,90.97 93.40,90.20 95.96,88.70 97.49,86.48 98.00,83.54"/>
    </edge>
    <edge id=":5_12" function="internal">
        <lane id=":5_12_0" index="0" speed="20.12" length="18.44" width="4.00" shape="89.83,90.97 108.18,89.13"/>
        <lane id=":5_12_1" index="1" speed="20.12" length="18.44" width="4.00" shape="90.23,94.95 108.58,93.11"/>
        <lane id=":5_12_2" index="2" speed="20.12" length="18.44" width="4.00" shape="90.63,98.93 108.98,97.09"/>
    </edge>
    <edge id=":5_15" function="internal">
        <lane id=":5_15_0" index="0" speed="9.94" length="6.16" width="4.00" shape="90.63,98.93 95.60,99.60 96.46,100.35"/>
    </edge>
    <edge id=":5_17" function="internal">
        <lane id=":5_17_0" index="0" speed="9.94" length="17.74" width="4.00" shape="96.46,100.35 99.16,102.74 101.29,108.36 102.00,116.46"/>
    </edge>

    <edge id="1to5" from="1" to="5" priority="2">
        <lane id="1to5_0" index="0" speed="20.12" length="83.54" width="4.00" shape="102.00,0.00 102.00,83.54"/>
    </edge>
    <edge id="2to5" from="2" to="5" priority="3">
        <lane id="2to5_0" index="0" speed="20.12" length="91.28" width="4.00" shape="201.00,99.95 110.17,109.03"/>
        <lane id="2to5_1" index="1" speed="20.12" length="91.28" width="4.00" shape="200.60,95.97 109.77,105.05"/>
        <lane id="2to5_2" index="2" speed="20.12" length="91.28" width="4.00" shape="200.20,91.99 109.37,101.07"/>
    </edge>
    <edge id="3to5" from="3" to="5" priority="2">
        <lane id="3to5_0" index="0" speed="20.12" length="83.54" width="4.00" shape="98.00,200.00 98.00,116.46"/>
    </edge>
    <edge id="4to5" from="4" to="5" priority="3">
        <lane id="4to5_0" index="0" speed="20.12" length="91.28" width="4.00" shape="-1.00,100.05 89.83,90.97"/>
        <lane id="4to5_1" index="1" speed="20.12" length="91.28" width="4.00" shape="-0.60,104.03 90.23,94.95"/>
        <lane id="4to5_2" index="2" speed="20.12" length="91.28" width="4.00" shape="-0.20,108.01 90.63,98.93"/>
    </edge>
    <edge id="5to1" from="5" to="1" priority="2">
        <lane id="5to1_0" index="0" speed="20.12" length="83.54" width="4.00" shape="98.00,83.54 98.00,0.00"/>
    </edge>
    <edge id="5to2" from="5" to="2" priority="3">
        <lane id="5to2_0" index="0" speed="20.12" length="91.28" width="4.00" shape="108.18,89.13 199.00,80.05"/>
        <lane id="5to2_1" index="1" speed="20.12" length="91.28" width="4.00" shape="108.58,93.11 199.40,84.03"/>
        <lane id="5to2_2" index="2" speed="20.12" length="91.28" width="4.00" shape="108.98,97.09 199.80,88.01"/>
    </edge>
    <edge id="5to3" from="5" to="3" priority="2">
        <lane id="5to3_0" index="0" speed="20.12" length="83.54" width="4.00" shape="102.00,116.46 102.00,200.00"/>
    </edge>
    <edge id="5to4" from="5" to="4" priority="3">
        <lane id="5to4_0" index="0" speed="20.12" length="91.28" width="4.00" shape="91.82,110.87 1.00,119.95"/>
        <lane id="5to4_1" index="1" speed="20.12" length="91.28" width="4.00" shape="91.42,106.89 0.60,115.97"/>
        <lane id="5to4_2" index="2" speed="20.12" length="91.28" width="4.00" shape="91.02,102.91 0.20,111.99"/>
    </edge>

    <junction id="1" type="dead_end" x="100.00" y="0.00" incLanes="5to1_0" intLanes="" shape="100.00,0.00 96.00,0.00 100.00,0.00"/>
    <junction id="2" type="dead_end" x="200.00" y="90.00" incLanes="5to2_0 5to2_1 5to2_2" intLanes="" shape="200.00,90.00 198.81,78.06 200.00,90.00"/>
    <junction id="3" type="dead_end" x="100.00" y="200.00" incLanes="5to3_0" intLanes="" shape="100.00,200.00 104.00,200.00 100.00,200.00"/>
    <junction id="4" type="dead_end" x="0.00" y="110.00" incLanes="5to4_0 5to4_1 5to4_2" intLanes="" shape="-0.00,110.00 1.19,121.94 -0.00,110.00"/>
    <junction id="5" type="priority" x="100.00" y="100.00" incLanes="3to5_0 2to5_0 2to5_1 2to5_2 1to5_0 4to5_0 4to5_1 4to5_2" intLanes=":5_0_0 :5_1_0 :5_2_0 :5_3_0 :5_4_0 :5_4_1 :5_4_2 :5_16_0 :5_8_0 :5_9_0 :5_10_0 :5_11_0 :5_12_0 :5_12_1 :5_12_2 :5_17_0" shape="96.00,116.46 104.00,116.46 104.71,113.72 105.59,112.70 106.83,111.91 108.42,111.35 110.37,111.02 107.98,87.14 105.77,86.92 105.00,86.44 104.44,85.72 104.11,84.75 104.00,83.54 96.00,83.54 95.29,86.28 94.41,87.30 93.17,88.09 91.58,88.65 89.63,88.98 92.02,112.86 94.23,113.08 95.00,113.56 95.56,114.28 95.89,115.25">
        <request index="0"  response="0000000001110000" foes="0000000001110000" cont="0"/>
        <request index="1"  response="1111100011110000" foes="1111110011110000" cont="0"/>
        <request index="2"  response="1111001011110000" foes="1111001011110000" cont="0"/>
        <request index="3"  response="0000000000000000" foes="1000001000000000" cont="0"/>
        <request index="4"  response="0000000000000000" foes="1000011000000111" cont="0"/>
        <request index="5"  response="0000000000000000" foes="1000011000000111" cont="0"/>
        <request index="6"  response="0000000000000000" foes="1000011000000111" cont="0"/>
        <request index="7"  response="0111100000000000" foes="0111111000000110" cont="1"/>
        <request index="8"  response="0111000000000000" foes="0111000000000000" cont="0"/>
        <request index="9"  response="1111000011111000" foes="1111000011111100" cont="0"/>
        <request index="10" response="1111000011110010" foes="1111000011110010" cont="0"/>
        <request index="11" response="0000000000000000" foes="0000000010000010" cont="0"/>
        <request index="12" response="0000000000000000" foes="0000011110000110" cont="0"/>
        <request index="13" response="0000000000000000" foes="0000011110000110" cont="0"/>
        <request index="14" response="0000000000000000" foes="0000011110000110" cont="0"/>
        <request index="15" response="0000000001111000" foes="0000011001111110" cont="1"/>
    </junction>

    <junction id=":5_16_0" type="internal" x="103.54" y="99.65" incLanes=":5_7_0 4to5_0 4to5_1 4to5_2" intLanes=":5_1_0 :5_2_0 :5_9_0 :5_10_0 :5_11_0 :5_12_0 :5_12_1 :5_12_2"/>
    <junction id=":5_17_0" type="internal" x="96.46" y="100.35" incLanes=":5_15_0 2to5_0 2to5_1 2to5_2" intLanes=":5_1_0 :5_2_0 :5_3_0 :5_4_0 :5_4_1 :5_4_2 :5_9_0 :5_10_0"/>

    <connection from="1to5" to="5to2" fromLane="0" toLane="0" via=":5_8_0" dir="r" state="m"/>
    <connection from="1to5" to="5to3" fromLane="0" toLane="0" via=":5_9_0" dir="s" state="m"/>
    <connection from="1to5" to="5to4" fromLane="0" toLane="2" via=":5_10_0" dir="l" state="m"/>
    <connection from="2to5" to="5to3" fromLane="0" toLane="0" via=":5_3_0" dir="r" state="M"/>
    <connection from="2to5" to="5to4" fromLane="0" toLane="0" via=":5_4_0" dir="s" state="M"/>
    <connection from="2to5" to="5to4" fromLane="1" toLane="1" via=":5_4_1" dir="s" state="M"/>
    <connection from="2to5" to="5to4" fromLane="2" toLane="2" via=":5_4_2" dir="s" state="M"/>
    <connection from="2to5" to="5to1" fromLane="2" toLane="0" via=":5_7_0" dir="l" state="m"/>
    <connection from="3to5" to="5to4" fromLane="0" toLane="0" via=":5_0_0" dir="r" state="m"/>
    <connection from="3to5" to="5to1" fromLane="0" toLane="0" via=":5_1_0" dir="s" state="m"/>
    <connection from="3to5" to="5to2" fromLane="0" toLane="2" via=":5_2_0" dir="l" state="m"/>
    <connection from="4to5" to="5to1" fromLane="0" toLane="0" via=":5_11_0" dir="r" state="M"/>
    <connection from="4to5" to="5to2" fromLane="0" toLane="0" via=":5_12_0" dir="s" state="M"/>
    <connection from="4to5" to="5to2" fromLane="1" toLane="1" via=":5_12_1" dir="s" state="M"/>
    <connection from="4to5" to="5to2" fromLane="2" toLane="2" via=":5_12_2" dir="s" state="M"/>
    <connection from="4to5" to="5to3" fromLane="2" toLane="0" via=":5_15_0" dir="l" state="m"/>

    <connection from=":5_0" to="5to4" fromLane="0" toLane="0" dir="r" state="M"/>
    <connection from=":5_1" to="5to1" fromLane="0" toLane="0" dir="s" state="M"/>
    <connection from=":5_2" to="5to2" fromLane="0" toLane="2" dir="l" state="M"/>
    <connection from=":5_3" to="5to3" fromLane="0" toLane="0" dir="r" state="M"/>
    <connection from=":5_4" to="5to4" fromLane="0" toLane="0" dir="s" state="M"/>
    <connection from=":5_4" to="5to4" fromLane="1" toLane="1" dir="s" state="M"/>
    <connection from=":5_4" to="5to4" fromLane="2" toLane="2" dir="s" state="M"/>
    <connection from=":5_7" to="5to1" fromLane="0" toLane="0" via=":5_16_0" dir="l" state="m"/>
    <connection from=":5_16" to="5to1" fromLane="0" toLane="0" dir="l" state="M"/>
    <connection from=":5_8" to="5to2" fromLane="0" toLane="0" dir="r" state="M"/>
    <connection from=":5_9" to="5to3" fromLane="0" toLane="0" dir="s" state="M"/>
    <connection from=":5_10" to="5to4" fromLane="0" toLane="2" dir="l" state="M"/>
    <connection from=":5_11" to="5to1" fromLane="0" toLane="0" dir="r" state="M"/>
    <connection from=":5_12" to="5to2" fromLane="0" toLane="0" dir="s" state="M"/>
    <connection from=":5_12" to="5to2" fromLane="1" toLane="1" dir="s" state="M"/>
    <connection from=":5_12" to="5to2" fromLane="2" toLane="2" dir="s" state="M"/>
    <connection from=":5_15" to="5to3" fromLane="0" toLane="0" via=":5_17_0" dir="l" state="m"/>
    <connection from=":5_17" to="5to3" fromLane="0" toLane="0" dir="l" state="M"/>

</net>
